glimpse/data/3000/out_ieee9500bal_base_sg0_1_noPV_noDG.glm
object node {
	name "l3195751";
	phases CN;
	nominal_voltage 7199.56;
}

object node {
	name "l2858163";
	phases ABCN;
	nominal_voltage 7199.56;
}

object node {
	name "m1069632";
	phases BN;
	nominal_voltage 7199.56;
}

object node {
	name "m1027056";
	phases AN;
	nominal_voltage 7199.56;
}

object node {
	name "n1136028";
	phases ABCN;
	nominal_voltage 7199.56;
}

object node {
	name "d6409775-4_int";
	phases AN;
	nominal_voltage 7199.56;
}

object node {
	name "m1026925";
	phases AN;
	nominal_voltage 7199.56;
}

object node {
	name "l2814529";
	phases ABCN;
	nominal_voltage 7199.56;
}

object node {
	name "m1026705";
	phases CN;
	nominal_voltage 7199.56;
}

object node {
	name "l3312692";
	phases AN;
	nominal_voltage 7199.56;
}

object node {
	name "l3235249";
	phases AN;
	nominal_voltage 7199.56;
}

object node {
	name "l2822866";
	phases ABCN;
	nominal_voltage 7199.56;
}

object node {
	name "m1026681";
	phases ABCN;
	nominal_voltage 7199.56;
}

object node {
	name "m1047518";
	phases BN;
	nominal_voltage 7199.56;
}

object node {
	name "l3728041";
	phases AN;
	nominal_voltage 7199.56;
}

object node {
	name "m1047485";
	phases ABCN;
	nominal_voltage 7199.56;
}

object node {
	name "n1137003";
	phases AN;
	nominal_voltage 7199.56;
}

object node {
	name "n1139551";
	phases ABCN;
	nominal_voltage 7199.56;
}

object node {
	name "m1027066";
	phases CN;
	nominal_voltage 7199.56;
}

object node {
	name "m1047722";
	phases ABCN;
	nominal_voltage 7199.56;
}

object node {
	name "l3085410";
	phases BN;
	nominal_voltage 7199.56;
}

object node {
	name "n1140526";
	phases CN;
	nominal_voltage 7199.56;
}

object node {
	name "l2895449";
	phases ABCN;
	nominal_voltage 7199.56;
}

object node {
	name "n1136664";
	phases AN;
	nominal_voltage 7199.56;
}

object node {
	name "m1026810";
	phases CN;
	nominal_voltage 7199.56;
}

object node {
	name "l2729427";
	phases BN;
	nominal_voltage 7199.56;
}

object node {
	name "n1136363";
	phases ABCN;
	nominal_voltage 7199.56;
}

object node {
	name "l3141389";
	phases AN;
	nominal_voltage 7199.56;
}

object node {
	name "l3103822";
	phases ABCN;
	nominal_voltage 7199.56;
}

object node {
	name "221-240988";
	phases CN;
	nominal_voltage 7199.56;
}

object node {
	name "l3649301";
	phases AN;
	nominal_voltage 7199.56;
}

object node {
	name "m1069513";
	phases ABCN;
	nominal_voltage 7199.56;
}

object node {
	name "p901931";
	phases CN;
	nominal_voltage 7199.56;
}

object node {
	name "l3727710";
	phases AN;
	nominal_voltage 7199.56;
}

object node {
	name "m3768670";
	phases ABCN;
	nominal_voltage 7199.56;
}

object node {
	name "p859135";
	phases AN;
	nominal_voltage 7199.56;
}

object node {
	name "n1137987";
	phases CN;
	nominal_voltage 7199.56;
}

object node {
	name "m1010007";
	phases AN;
	nominal_voltage 7199.56;
}

object node {
	name "m1026880";
	phases AN;
	nominal_voltage 7199.56;
}

object node {
	name "p901933";
	phases AN;
	nominal_voltage 7199.56;
}

object node {
	name "n1136993";
	phases AN;
	nominal_voltage 7199.56;
}

object node {
	name "m1047593";
	phases ABCN;
	nominal_voltage 7199.56;
}

object node {
	name "l3008232";
	phases BN;
	nominal_voltage 7199.56;
}

object node {
	name "n1137991";
	phases CN;
	nominal_voltage 7199.56;
}

object node {
	name "m1047780";
	phases BN;
	nominal_voltage 7199.56;
}

object node {
	name "m1047478";
	phases CN;
	nominal_voltage 7199.56;
}

object node {
	name "l2710515";
	phases CN;
	nominal_voltage 7199.56;
}

object node {
	name "n1136353";
	phases BN;
	nominal_voltage 7199.56;
}

object node {
	name "n1140828";
	phases ABCN;
	nominal_voltage 7199.56;
}

object node {
	name "l2952014";
	phases CN;
	nominal_voltage 7199.56;
}

object node {
	name "m4113345";
	phases CN;
	nominal_voltage 7199.56;
}

object node {
	name "l3066826";
	phases BN;
	nominal_voltage 7199.56;
}

object node {
	name "l2685809";
	phases AN;
	nominal_voltage 7199.56;
}

object node {
	name "m1047744";
	phases AN;
	nominal_voltage 7199.56;
}

object node {
	name "n1136367";
	phases ABCN;
	nominal_voltage 7199.56;
}

object node {
	name "m1069521";
	phases AN;
	nominal_voltage 7199.56;
}

object node {
	name "m1047813";
	phases BN;
	nominal_voltage 7199.56;
}

object node {
	name "l2989432";
	phases BN;
	nominal_voltage 7199.56;
}

object node {
	name "e206614";
	phases BN;
	nominal_voltage 7199.56;
}

object node {
	name "l3160106";
	phases AN;
	nominal_voltage 7199.56;
}

object node {
	name "l3122821";
	phases ABCN;
	nominal_voltage 7199.56;
}

object node {
	name "l2766748";
	phases AN;
	nominal_voltage 7199.56;
}

object node {
	name "m1026820";
	phases CN;
	nominal_voltage 7199.56;
}

object node {
	name "m1009720";
	phases ABCN;
	nominal_voltage 7199.56;
}

object node {
	name "l3085403";
	phases AN;
	nominal_voltage 7199.56;
}

object node {
	name "m1009824";
	phases BN;
	nominal_voltage 7199.56;
}

object node {
	name "l2954355";
	phases AN;
	nominal_voltage 7199.56;
}

object node {
	name "l2804248";
	phases BN;
	nominal_voltage 7199.56;
}

object node {
	name "m1069613";
	phases BN;
	nominal_voltage 7199.56;
}

object node {
	name "d5860450-1_int";
	phases ABCN;
	nominal_voltage 7199.56;
}

object node {
	name "l3207907";
	phases ABCN;
	nominal_voltage 7199.56;
}

object node {
	name "m1047793";
	phases BN;
	nominal_voltage 7199.56;
}

object node {
	name "m1026946";
	phases BN;
	nominal_voltage 7199.56;
}

object node {
	name "l2841641";
	phases BN;
	nominal_voltage 7199.56;
}

object node {
	name "m1026697";
	phases ABCN;
	nominal_voltage 7199.56;
}

object node {
	name "n1140827";
	phases ABCN;
	nominal_voltage 7199.56;
}

object node {
	name "m1069544";
	phases BN;
	nominal_voltage 7199.56;
}

object node {
	name "n1147862";
	phases AN;
	nominal_voltage 7199.56;
}

object node {
	name "l2879069";
	phases AN;
	nominal_voltage 7199.56;
}

object node {
	name "m1027039";
	phases ABCN;
	nominal_voltage 7199.56;
}

object node {
	name "196-29518";
	phases ABCN;
	nominal_voltage 7199.56;
}

object node {
	name "p827537";
	phases AN;
	nominal_voltage 7199.56;
}

object node {
	name "m1026701";
	phases ABCN;
	nominal_voltage 7199.56;
}

object node {
	name "m1026926";
	phases ABCN;
	nominal_voltage 7199.56;
}

object node {
	name "l2879092";
	phases CN;
	nominal_voltage 7199.56;
}

object node {
	name "l2766724";
	phases CN;
	nominal_voltage 7199.56;
}

object node {
	name "m1069620";
	phases BN;
	nominal_voltage 7199.56;
}

object node {
	name "m1026655";
	phases ABCN;
	nominal_voltage 7199.56;
}

object node {
	name "m1026941";
	phases AN;
	nominal_voltage 7199.56;
}

object node {
	name "l3065696";
	phases AN;
	nominal_voltage 7199.56;
}

object node {
	name "l3216350";
	phases AN;
	nominal_voltage 7199.56;
}

object node {
	name "l2860478";
	phases BN;
	nominal_voltage 7199.56;
}

object node {
	name "m1026931";
	phases AN;
	nominal_voltage 7199.56;
}

object node {
	name "m1047503";
	phases ABCN;
	nominal_voltage 7199.56;
}

object node {
	name "l3632979";
	phases AN;
	nominal_voltage 7199.56;
}

object node {
	name "m1026chp-1";
	phases ABCN;
	nominal_voltage 7199.56;
}

object node {
	name "l2991908";
	phases AN;
	nominal_voltage 7199.56;
}

object node {
	name "n1136357";
	phases CN;
	nominal_voltage 7199.56;
}

object node {
	name "m1026984";
	phases ABCN;
	nominal_voltage 7199.56;
}

object node {
	name "l2879089";
	phases CN;
	nominal_voltage 7199.56;
}

object node {
	name "m1069560";
	phases BN;
	nominal_voltage 7199.56;
}

object node {
	name "m1027001";
	phases BN;
	nominal_voltage 7199.56;
}

object node {
	name "n1136998";
	phases ABCN;
	nominal_voltage 7199.56;
}

object node {
	name "m1026734";
	phases AN;
	nominal_voltage 7199.56;
}

object node {
	name "l3226771";
	phases AN;
	nominal_voltage 7199.56;
}

object node {
	name "l2745799";
	phases CN;
	nominal_voltage 7199.56;
}

object node {
	name "l3066811";
	phases BN;
	nominal_voltage 7199.56;
}

object node {
	name "m1069627";
	phases BN;
	nominal_voltage 7199.56;
}

object node {
	name "l2689691";
	phases ABCN;
	nominal_voltage 7199.56;
}

object node {
	name "n1140823";
	phases ABCN;
	nominal_voltage 7199.56;
}

object node {
	name "n1136672";
	phases CN;
	nominal_voltage 7199.56;
}

object node {
	name "m3763618";
	phases ABCN;
	nominal_voltage 7199.56;
}

object node {
	name "l2820556";
	phases AN;
	nominal_voltage 7199.56;
}

object node {
	name "l2673308";
	phases ABCN;
	nominal_voltage 7199.56;
}

object node {
	name "n1136668";
	phases BN;
	nominal_voltage 7199.56;
}

object node {
	name "d5655682-1_int";
	phases BN;
	nominal_voltage 7199.56;
}

object node {
	name "196-29520";
	phases ABCN;
	nominal_voltage 7199.56;
}

object node {
	name "l3254216";
	phases AN;
	nominal_voltage 7199.56;
}

object node {
	name "m1026795";
	phases ABCN;
	nominal_voltage 7199.56;
}

object node {
	name "e182732";
	phases ABCN;
	nominal_voltage 7199.56;
}

object node {
	name "m3037453";
	phases CN;
	nominal_voltage 7199.56;
}

object node {
	name "l2991939";
	phases ABCN;
	nominal_voltage 7199.56;
}

object node {
	name "m1069503";
	phases ABCN;
	nominal_voltage 7199.56;
}

object node {
	name "l3010561";
	phases AN;
	nominal_voltage 7199.56;
}

object node {
	name "l3216348";
	phases AN;
	nominal_voltage 7199.56;
}

object node {
	name "d5653457-1_int";
	phases ABCN;
	nominal_voltage 7199.56;
}

object node {
	name "p827527";
	phases ABCN;
	nominal_voltage 7199.56;
}

object node {
	name "l3189190";
	phases AN;
	nominal_voltage 7199.56;
}

object node {
	name "m1069532";
	phases BN;
	nominal_voltage 7199.56;
}

object node {
	name "l3141411";
	phases CN;
	nominal_voltage 7199.56;
}

object node {
	name "d5774457-1_int";
	phases ABCN;
	nominal_voltage 7199.56;
}

object node {
	name "m1069517";
	phases ABCN;
	nominal_voltage 7199.56;
}

object node {
	name "l3160123";
	phases AN;
	nominal_voltage 7199.56;
}

object node {
	name "m1047725";
	phases BN;
	nominal_voltage 7199.56;
}

object node {
	name "d5623395-1_int";
	phases BN;
	nominal_voltage 7199.56;
}

object node {
	name "l2989564";
	phases BN;
	nominal_voltage 7199.56;
}

object node {
	name "l3160103";
	phases ABCN;
	nominal_voltage 7199.56;
}

object node {
	name "m1026979";
	phases ABCN;
	nominal_voltage 7199.56;
}

object node {
	name "p827530";
	phases AN;
	nominal_voltage 7199.56;
}

object node {
	name "l2748144";
	phases ABCN;
	nominal_voltage 7199.56;
}

object node {
	name "m1026940";
	phases BN;
	nominal_voltage 7199.56;
}

object node {
	name "l3178971";
	phases AN;
	nominal_voltage 7199.56;
}

object node {
	name "m1009691";
	phases AN;
	nominal_voltage 7199.56;
}

object node {
	name "l2764436";
	phases BN;
	nominal_voltage 7199.56;
}

object node {
	name "l2876796";
	phases AN;
	nominal_voltage 7199.56;
}

object node {
	name "l2973167";
	phases ABCN;
	nominal_voltage 7199.56;
}

object node {
	name "m1026724";
	phases ABCN;
	nominal_voltage 7199.56;
}

object node {
	name "m1026665";
	phases AN;
	nominal_voltage 7199.56;
}

object node {
	name "l3649306";
	phases AN;
	nominal_voltage 7199.56;
}

object node {
	name "l2710536";
	phases AN;
	nominal_voltage 7199.56;
}

object node {
	name "l2841623";
	phases AN;
	nominal_voltage 7199.56;
}

object node {
	name "l2785538";
	phases AN;
	nominal_voltage 7199.56;
}

object node {
	name "m1047592";
	phases ABCN;
	nominal_voltage 7199.56;
}

object node {
	name "l2935555";
	phases AN;
	nominal_voltage 7199.56;
}

object node {
	name "l2766738";
	phases ABCN;
	nominal_voltage 7199.56;
}

object node {
	name "l2841624";
	phases BN;
	nominal_voltage 7199.56;
}

object node {
	name "l2991914";
	phases ABCN;
	nominal_voltage 7199.56;
}

object node {
	name "m1069526";
	phases BN;
	nominal_voltage 7199.56;
}

object node {
	name "m1069555";
	phases BN;
	nominal_voltage 7199.56;
}

object node {
	name "n1137988";
	phases AN;
	nominal_voltage 7199.56;
}

object node {
	name "n1140524";
	phases AN;
	nominal_voltage 7199.56;
}

object node {
	name "e182729";
	phases ABCN;
	nominal_voltage 7199.56;
}

object node {
	name "m1026935";
	phases BN;
	nominal_voltage 7199.56;
}

object node {
	name "l3160102";
	phases ABCN;
	nominal_voltage 7199.56;
}

object node {
	name "m1027014";
	phases CN;
	nominal_voltage 7199.56;
}

object node {
	name "l2973159";
	phases AN;
	nominal_voltage 7199.56;
}

object node {
	name "p901905";
	phases BN;
	nominal_voltage 7199.56;
}

object node {
	name "l3195327";
	phases AN;
	nominal_voltage 7199.56;
}

object node {
	name "m1010014";
	phases AN;
	nominal_voltage 7199.56;
}

object node {
	name "190-8593";
	phases ABCN;
	nominal_voltage 7199.56;
}

object node {
	name "l3065750";
	phases BN;
	nominal_voltage 7199.56;
}

object node {
	name "m1047484";
	phases ABCN;
	nominal_voltage 7199.56;
}

object node {
	name "l2691967";
	phases ABCN;
	nominal_voltage 7199.56;
}

object node {
	name "m1026796";
	phases ABCN;
	nominal_voltage 7199.56;
}

object node {
	name "l3254230";
	phases AN;
	nominal_voltage 7199.56;
}

object node {
	name "n1140519";
	phases ABCN;
	nominal_voltage 7199.56;
}

object node {
	name "l2710532";
	phases CN;
	nominal_voltage 7199.56;
}

object node {
	name "l2860485";
	phases BN;
	nominal_voltage 7199.56;
}

object node {
	name "l2710511";
	phases AN;
	nominal_voltage 7199.56;
}

object node {
	name "l2841631";
	phases CN;
	nominal_voltage 7199.56;
}

object node {
	name "l3728040";
	phases AN;
	nominal_voltage 7199.56;
}

object node {
	name "m1069462";
	phases BN;
	nominal_voltage 7199.56;
}

object node {
	name "m1026798";
	phases CN;
	nominal_voltage 7199.56;
}

object node {
	name "n1137989";
	phases CN;
	nominal_voltage 7199.56;
}

object node {
	name "l3104117";
	phases CN;
	nominal_voltage 7199.56;
}

object node {
	name "l3008237";
	phases CN;
	nominal_voltage 7199.56;
}

object node {
	name "m1047633";
	phases CN;
	nominal_voltage 7199.56;
}

object node {
	name "l3160113";
	phases BN;
	nominal_voltage 7199.56;
}

object node {
	name "m3949154";
	phases AN;
	nominal_voltage 7199.56;
}

object node {
	name "l3141397";
	phases BN;
	nominal_voltage 7199.56;
}

object node {
	name "m1026854";
	phases ABCN;
	nominal_voltage 7199.56;
}

object node {
	name "l3254206";
	phases BN;
	nominal_voltage 7199.56;
}

object node {
	name "m1069610";
	phases BN;
	nominal_voltage 7199.56;
}

object node {
	name "l3160108";
	phases BN;
	nominal_voltage 7199.56;
}

object node {
	name "m1026883";
	phases CN;
	nominal_voltage 7199.56;
}

object node {
	name "m1047768";
	phases BN;
	nominal_voltage 7199.56;
}

object node {
	name "l2766747";
	phases ABCN;
	nominal_voltage 7199.56;
}

object node {
	name "l2897793";
	phases AN;
	nominal_voltage 7199.56;
}

object node {
	name "l2879068";
	phases BN;
	nominal_voltage 7199.56;
}

object node {
	name "m1047575";
	phases ABCN;
	nominal_voltage 7199.56;
}

object node {
	name "m1069565";
	phases BN;
	nominal_voltage 7199.56;
}

object node {
	name "l2785534";
	phases BN;
	nominal_voltage 7199.56;
}

object node {
	name "l2726975";
	phases BN;
	nominal_voltage 7199.56;
}

object node {
	name "m1047572";
	phases ABCN;
	nominal_voltage 7199.56;
}

object node {
	name "l3216361";
	phases BN;
	nominal_voltage 7199.56;
}

object node {
	name "d6231996-1_int";
	phases BN;
	nominal_voltage 7199.56;
}

object node {
	name "m3327097";
	phases BN;
	nominal_voltage 7199.56;
}

object node {
	name "l3160114";
	phases AN;
	nominal_voltage 7199.56;
}

object node {
	name "m1027092";
	phases AN;
	nominal_voltage 7199.56;
}

object node {
	name "m1010016";
	phases AN;
	nominal_voltage 7199.56;
}

object node {
	name "l3048212";
	phases AN;
	nominal_voltage 7199.56;
}

object node {
	name "l3120503";
	phases AN;
	nominal_voltage 7199.56;
}

object node {
	name "l3727709";
	phases AN;
	nominal_voltage 7199.56;
}

object node {
	name "l3215549";
	phases BN;
	nominal_voltage 7199.56;
}

object node {
	name "n1141474";
	phases AN;
	nominal_voltage 7199.56;
}

object node {
	name "l2876813";
	phases CN;
	nominal_voltage 7199.56;
}

object node {
	name "m1069564";
	phases ABCN;
	nominal_voltage 7199.56;
}

object node {
	name "m1047577";
	phases ABCN;
	nominal_voltage 7199.56;
}

object node {
	name "l2916618";
	phases BN;
	nominal_voltage 7199.56;
}

object node {
	name "l2916607";
	phases CN;
	nominal_voltage 7199.56;
}

object node {
	name "d5895780-3_int";
	phases ABCN;
	nominal_voltage 7199.56;
}

object node {
	name "l2785517";
	phases CN;
	nominal_voltage 7199.56;
}

object node {
	name "m3036169";
	phases AN;
	nominal_voltage 7199.56;
}

object node {
	name "l3010563";
	phases AN;
	nominal_voltage 7199.56;
}

object node {
	name "m1069590";
	phases BN;
	nominal_voltage 7199.56;
}

object node {
	name "m1047787";
	phases BN;
	nominal_voltage 7199.56;
}

object node {
	name "m1069516";
	phases ABCN;
	nominal_voltage 7199.56;
}

object node {
	name "m1027036";
	phases BN;
	nominal_voltage 7199.56;
}

object node {
	name "m1047568";
	phases ABCN;
	nominal_voltage 7199.56;
}

object node {
	name "l2952013";
	phases CN;
	nominal_voltage 7199.56;
}

object node {
	name "l3082983";
	phases BN;
	nominal_voltage 7199.56;
}

object node {
	name "221-559681";
	phases CN;
	nominal_voltage 7199.56;
}

object node {
	name "l2973157";
	phases AN;
	nominal_voltage 7199.56;
}

object node {
	name "l2935560";
	phases CN;
	nominal_voltage 7199.56;
}

object node {
	name "n1138000";
	phases AN;
	nominal_voltage 7199.56;
}

object node {
	name "l2935557";
	phases AN;
	nominal_voltage 7199.56;
}

object node {
	name "p1123251";
	phases AN;
	nominal_voltage 7199.56;
}

object node {
	name "m1069572";
	phases BN;
	nominal_voltage 7199.56;
}

object node {
	name "l2729424";
	phases AN;
	nominal_voltage 7199.56;
}

object node {
	name "l3066829";
	phases CN;
	nominal_voltage 7199.56;
}

object node {
	name "d5712587-2_int";
	phases AN;
	nominal_voltage 7199.56;
}

object node {
	name "m1026690";
	phases ABCN;
	nominal_voltage 7199.56;
}

object node {
	name "l2841635";
	phases ABCN;
	nominal_voltage 7199.56;
}

object node {
	name "n1147858";
	phases CN;
	nominal_voltage 7199.56;
}

object node {
	name "m1026661";
	phases AN;
	nominal_voltage 7199.56;
}

object node {
	name "l3159645";
	phases AN;
	nominal_voltage 7199.56;
}

object node {
	name "l3729298";
	phases AN;
	nominal_voltage 7199.56;
}

object node {
	name "m1026805";
	phases CN;
	nominal_voltage 7199.56;
}

object node {
	name "l2764399";
	phases BN;
	nominal_voltage 7199.56;
}

object node {
	name "m1047733";
	phases AN;
	nominal_voltage 7199.56;
}

object node {
	name "d5835167-6_int";
	phases ABCN;
	nominal_voltage 7199.56;
}

object node {
	name "l3197633";
	phases AN;
	nominal_voltage 7199.56;
}

object node {
	name "l2983432";
	phases AN;
	nominal_voltage 7199.56;
}

object node {
	name "l2860506";
	phases BN;
	nominal_voltage 7199.56;
}

object node {
	name "l2764412";
	phases AN;
	nominal_voltage 7199.56;
}

object node {
	name "l3649304";
	phases AN;
	nominal_voltage 7199.56;
}

object node {
	name "n1137956";
	phases CN;
	nominal_voltage 7199.56;
}

object node {
	name "m1069535";
	phases BN;
	nominal_voltage 7199.56;
}

object node {
	name "l3197653";
	phases BN;
	nominal_voltage 7199.56;
}

object node {
	name "l2991909";
	phases AN;
	nominal_voltage 7199.56;
}

object node {
	name "l3197631";
	phases AN;
	nominal_voltage 7199.56;
}

object node {
	name "m1047552";
	phases ABCN;
	nominal_voltage 7199.56;
}

object node {
	name "n1147861";
	phases CN;
	nominal_voltage 7199.56;
}

object node {
	name "n1136663";
	phases ABCN;
	nominal_voltage 7199.56;
}

object node {
	name "l2858175";
	phases AN;
	nominal_voltage 7199.56;
}

object node {
	name "l2857591";
	phases CN;
	nominal_voltage 7199.56;
}

object node {
	name "l2804254";
	phases AN;
	nominal_voltage 7199.56;
}

object node {
	name "m1047777";
	phases BN;
	nominal_voltage 7199.56;
}

object node {
	name "m1026851";
	phases ABCN;
	nominal_voltage 7199.56;
}

object node {
	name "l3214064";
	phases BN;
	nominal_voltage 7199.56;
}

object node {
	name "m1047728";
	phases BN;
	nominal_voltage 7199.56;
}

object node {
	name "d6019477-1_int";
	phases CN;
	nominal_voltage 7199.56;
}

object node {
	name "m1069465";
	phases AN;
	nominal_voltage 7199.56;
}

object node {
	name "n1136366";
	phases ABCN;
	nominal_voltage 7199.56;
}

object node {
	name "m1026849";
	phases AN;
	nominal_voltage 7199.56;
}

object node {
	name "l2860484";
	phases BN;
	nominal_voltage 7199.56;
}

object node {
	name "l3104114";
	phases BN;
	nominal_voltage 7199.56;
}

object node {
	name "m1026895";
	phases CN;
	nominal_voltage 7199.56;
}

object node {
	name "l2916619";
	phases BN;
	nominal_voltage 7199.56;
}

object node {
	name "m1027011";
	phases ABCN;
	nominal_voltage 7199.56;
}

object node {
	name "m1047612";
	phases CN;
	nominal_voltage 7199.56;
}

object node {
	name "m1009770";
	phases ABCN;
	nominal_voltage 7199.56;
}

object node {
	name "196-29521";
	phases BN;
	nominal_voltage 7199.56;
}

object node {
	name "l3234185";
	phases BN;
	nominal_voltage 7199.56;
}

object node {
	name "l2691965";
	phases BN;
	nominal_voltage 7199.56;
}

object node {
	name "m1069533";
	phases ABCN;
	nominal_voltage 7199.56;
}

object node {
	name "m1026826";
	phases CN;
	nominal_voltage 7199.56;
}

object node {
	name "l2710508";
	phases BN;
	nominal_voltage 7199.56;
}

object node {
	name "l2785543";
	phases BN;
	nominal_voltage 7199.56;
}

object node {
	name "m1047566";
	phases ABCN;
	nominal_voltage 7199.56;
}

object node {
	name "n1137996";
	phases CN;
	nominal_voltage 7199.56;
}

object node {
	name "m1026872";
	phases ABCN;
	nominal_voltage 7199.56;
}

object node {
	name "l2841639";
	phases AN;
	nominal_voltage 7199.56;
}

object node {
	name "m1069487";
	phases CN;
	nominal_voltage 7199.56;
}

object node {
	name "n1134480";
	phases ABCN;
	nominal_voltage 7199.56;
}

object node {
	name "n1136029";
	phases BN;
	nominal_voltage 7199.56;
}

object node {
	name "l2689727";
	phases AN;
	nominal_voltage 7199.56;
}

object node {
	name "l3101787";
	phases AN;
	nominal_voltage 7199.56;
}

object node {
	name "l3178982";
	phases AN;
	nominal_voltage 7199.56;
}

object node {
	name "m1026764";
	phases AN;
	nominal_voltage 7199.56;
}

object node {
	name "l2897789";
	phases BN;
	nominal_voltage 7199.56;
}

object node {
	name "l2673313";
	phases ABCN;
	nominal_voltage 7199.56;
}

object node {
	name "l2821010";
	phases CN;
	nominal_voltage 7199.56;
}

object node {
	name "l2954338";
	phases BN;
	nominal_voltage 7199.56;
}

object node {
	name "m1047521";
	phases ABCN;
	nominal_voltage 7199.56;
}

object node {
	name "l3254217";
	phases ABCN;
	nominal_voltage 7199.56;
}

object node {
	name "m1009839";
	phases BN;
	nominal_voltage 7199.56;
}

object node {
	name "l3122816";
	phases ABCN;
	nominal_voltage 7199.56;
}

object node {
	name "m1047834";
	phases BN;
	nominal_voltage 7199.56;
}

object node {
	name "n1147857";
	phases ABCN;
	nominal_voltage 7199.56;
}

object node {
	name "m1009820";
	phases BN;
	nominal_voltage 7199.56;
}

object node {
	name "l2820535";
	phases BN;
	nominal_voltage 7199.56;
}

object node {
	name "p860847";
	phases AN;
	nominal_voltage 7199.56;
}

object node {
	name "p827529";
	phases BN;
	nominal_voltage 7199.56;
}

object node {
	name "m1047763";
	phases ABCN;
	nominal_voltage 7199.56;
}

object node {
	name "l2766723";
	phases AN;
	nominal_voltage 7199.56;
}

object node {
	name "l3254228";
	phases BN;
	nominal_voltage 7199.56;
}

object node {
	name "m3016088";
	phases AN;
	nominal_voltage 7199.56;
}

object node {
	name "l3235273";
	phases BN;
	nominal_voltage 7199.56;
}

object node {
	name "n1139264";
	phases AN;
	nominal_voltage 7199.56;
}

object node {
	name "n1147864";
	phases AN;
	nominal_voltage 7199.56;
}

object node {
	name "m1026660";
	phases AN;
	nominal_voltage 7199.56;
}

object node {
	name "l3104136";
	phases ABCN;
	nominal_voltage 7199.56;
}

object node {
	name "l3649302";
	phases AN;
	nominal_voltage 7199.56;
}

object node {
	name "l2841633";
	phases ABCN;
	nominal_voltage 7199.56;
}

object node {
	name "m1026915";
	phases ABCN;
	nominal_voltage 7199.56;
}

object node {
	name "l2748131";
	phases BN;
	nominal_voltage 7199.56;
}

object node {
	name "m3949157";
	phases AN;
	nominal_voltage 7199.56;
}

object node {
	name "l2991901";
	phases BN;
	nominal_voltage 7199.56;
}

object node {
	name "n1139549";
	phases AN;
	nominal_voltage 7199.56;
}

object node {
	name "l2820533";
	phases AN;
	nominal_voltage 7199.56;
}

object node {
	name "p859694";
	phases CN;
	nominal_voltage 7199.56;
}

object node {
	name "l2935567";
	phases BN;
	nominal_voltage 7199.56;
}

object node {
	name "l3216338";
	phases BN;
	nominal_voltage 7199.56;
}

object node {
	name "l3120504";
	phases AN;
	nominal_voltage 7199.56;
}

object node {
	name "m1047404";
	phases AN;
	nominal_voltage 7199.56;
}

object node {
	name "l3010564";
	phases CN;
	nominal_voltage 7199.56;
}

object node {
	name "m1026844";
	phases ABCN;
	nominal_voltage 7199.56;
}

object node {
	name "n1136671";
	phases ABCN;
	nominal_voltage 7199.56;
}

object node {
	name "l2897792";
	phases AN;
	nominal_voltage 7199.56;
}

object node {
	name "l2822868";
	phases AN;
	nominal_voltage 7199.56;
}

object node {
	name "l2860477";
	phases AN;
	nominal_voltage 7199.56;
}

object node {
	name "m1047528";
	phases ABCN;
	nominal_voltage 7199.56;
}

object node {
	name "m1026667";
	phases AN;
	nominal_voltage 7199.56;
}

object node {
	name "m1069597";
	phases BN;
	nominal_voltage 7199.56;
}

object node {
	name "l3177881";
	phases CN;
	nominal_voltage 7199.56;
}

object node {
	name "e203026";
	phases ABCN;
	nominal_voltage 7199.56;
}

object node {
	name "p827554";
	phases BN;
	nominal_voltage 7199.56;
}

object node {
	name "n1136030";
	phases BN;
	nominal_voltage 7199.56;
}

object node {
	name "l3649297";
	phases AN;
	nominal_voltage 7199.56;
}

object node {
	name "l3122822";
	phases AN;
	nominal_voltage 7199.56;
}

object node {
	name "m1027068";
	phases CN;
	nominal_voltage 7199.56;
}

object node {
	name "l2729410";
	phases CN;
	nominal_voltage 7199.56;
}

object node {
	name "l3189188";
	phases CN;
	nominal_voltage 7199.56;
}

object node {
	name "p827512";
	phases CN;
	nominal_voltage 7199.56;
}

object node {
	name "l2991933";
	phases CN;
	nominal_voltage 7199.56;
}

object node {
	name "d6140776-1_int";
	phases AN;
	nominal_voltage 7199.56;
}

object node {
	name "p895409";
	phases CN;
	nominal_voltage 7199.56;
}

object node {
	name "n1136657";
	phases ABCN;
	nominal_voltage 7199.56;
}

object node {
	name "l3216358";
	phases CN;
	nominal_voltage 7199.56;
}

object node {
	name "l2785521";
	phases CN;
	nominal_voltage 7199.56;
}

object node {
	name "l3727708";
	phases AN;
	nominal_voltage 7199.56;
}

object node {
	name "n1136362";
	phases AN;
	nominal_voltage 7199.56;
}

object node {
	name "l3235245";
	phases CN;
	nominal_voltage 7199.56;
}

object node {
	name "l3172805";
	phases AN;
	nominal_voltage 7199.56;
}

object node {
	name "n1136359";
	phases CN;
	nominal_voltage 7199.56;
}

object node {
	name "l2766744";
	phases BN;
	nominal_voltage 7199.56;
}

object node {
	name "p827553";
	phases BN;
	nominal_voltage 7199.56;
}

object node {
	name "l2804269";
	phases BN;
	nominal_voltage 7199.56;
}

object node {
	name "l2822857";
	phases BN;
	nominal_voltage 7199.56;
}

object node {
	name "m1026907";
	phases ABCN;
	nominal_voltage 7199.56;
}

object node {
	name "l2729434";
	phases BN;
	nominal_voltage 7199.56;
}

object node {
	name "m1069582";
	phases BN;
	nominal_voltage 7199.56;
}

object node {
	name "m1047580";
	phases ABCN;
	nominal_voltage 7199.56;
}

object node {
	name "m1026960";
	phases ABCN;
	nominal_voltage 7199.56;
}

object node {
	name "l2989571";
	phases AN;
	nominal_voltage 7199.56;
}

object node {
	name "l2748124";
	phases BN;
	nominal_voltage 7199.56;
}

object node {
	name "l2804262";
	phases AN;
	nominal_voltage 7199.56;
}

object node {
	name "l2897791";
	phases BN;
	nominal_voltage 7199.56;
}

object node {
	name "l2801896";
	phases BN;
	nominal_voltage 7199.56;
}

object node {
	name "m1026708";
	phases ABCN;
	nominal_voltage 7199.56;
}

object node {
	name "m1026902";
	phases ABCN;
	nominal_voltage 7199.56;
}

object node {
	name "m1027005";
	phases BN;
	nominal_voltage 7199.56;
}

object node {
	name "l3104118";
	phases CN;
	nominal_voltage 7199.56;
}

object node {
	name "m1069731";
	phases BN;
	nominal_voltage 7199.56;
}

object node {
	name "l3197634";
	phases BN;
	nominal_voltage 7199.56;
}

object node {
	name "m1047pv-1";
	phases ABCN;
	nominal_voltage 7199.56;
}

object node {
	name "l2897800";
	phases BN;
	nominal_voltage 7199.56;
}

object node {
	name "m1026807";
	phases ABCN;
	nominal_voltage 7199.56;
}

object node {
	name "p827502";
	phases AN;
	nominal_voltage 7199.56;
}

object node {
	name "l2673322";
	phases BN;
	nominal_voltage 7199.56;
}

object node {
	name "l3235247";
	phases AN;
	nominal_voltage 7199.56;
}

object node {
	name "l3270814";
	phases AN;
	nominal_voltage 7199.56;
}

object node {
	name "l3232933";
	phases AN;
	nominal_voltage 7199.56;
}

object node {
	name "n1137993";
	phases AN;
	nominal_voltage 7199.56;
}

object node {
	name "l2822871";
	phases ABCN;
	nominal_voltage 7199.56;
}

object node {
	name "m1026812";
	phases CN;
	nominal_voltage 7199.56;
}

object node {
	name "l3216367";
	phases ABCN;
	nominal_voltage 7199.56;
}

object node {
	name "n1134469";
	phases AN;
	nominal_voltage 7199.56;
}

object node {
	name "l3254213";
	phases ABCN;
	nominal_voltage 7199.56;
}

object node {
	name "l3235248";
	phases CN;
	nominal_voltage 7199.56;
}

object node {
	name "l2745848";
	phases ABCN;
	nominal_voltage 7199.56;
}

object node {
	name "l2841632";
	phases ABCN;
	nominal_voltage 7199.56;
}

object node {
	name "l2929261";
	phases AN;
	nominal_voltage 7199.56;
}

object node {
	name "n1140829";
	phases CN;
	nominal_voltage 7199.56;
}

object node {
	name "l2954361";
	phases BN;
	nominal_voltage 7199.56;
}

object node {
	name "l3254209";
	phases CN;
	nominal_voltage 7199.56;
}

object node {
	name "l2691947";
	phases AN;
	nominal_voltage 7199.56;
}

object node {
	name "m1027073";
	phases CN;
	nominal_voltage 7199.56;
}

object node {
	name "l2673303";
	phases CN;
	nominal_voltage 7199.56;
}

object node {
	name "m1047490";
	phases ABCN;
	nominal_voltage 7199.56;
}

object node {
	name "l2673318";
	phases CN;
	nominal_voltage 7199.56;
}

object node {
	name "n1134470";
	phases AN;
	nominal_voltage 7199.56;
}

object node {
	name "l2897767";
	phases CN;
	nominal_voltage 7199.56;
}

object node {
	name "l3728038";
	phases AN;
	nominal_voltage 7199.56;
}

object node {
	name "n1134479";
	phases ABCN;
	nominal_voltage 7199.56;
}

object node {
	name "l3649300";
	phases AN;
	nominal_voltage 7199.56;
}

object node {
	name "m1047825";
	phases BN;
	nominal_voltage 7199.56;
}

object node {
	name "m1047702";
	phases AN;
	nominal_voltage 7199.56;
}

object node {
	name "p827574";
	phases AN;
	nominal_voltage 7199.56;
}

object node {
	name "l2804271";
	phases BN;
	nominal_voltage 7199.56;
}

object node {
	name "l2673326";
	phases BN;
	nominal_voltage 7199.56;
}

object node {
	name "l2860480";
	phases BN;
	nominal_voltage 7199.56;
}

object node {
	name "m1027041";
	phases CN;
	nominal_voltage 7199.56;
}

object node {
	name "m1009838";
	phases BN;
	nominal_voltage 7199.56;
}

object node {
	name "n1140824";
	phases AN;
	nominal_voltage 7199.56;
}

object node {
	name "m3729981";
	phases AN;
	nominal_voltage 7199.56;
}

object node {
	name "l3251806";
	phases BN;
	nominal_voltage 7199.56;
}

object node {
	name "l2822870";
	phases CN;
	nominal_voltage 7199.56;
}

object node {
	name "m1069543";
	phases BN;
	nominal_voltage 7199.56;
}

object node {
	name "l2804272";
	phases BN;
	nominal_voltage 7199.56;
}

object node {
	name "n1147865";
	phases AN;
	nominal_voltage 7199.56;
}

object node {
	name "m1009724";
	phases ABCN;
	nominal_voltage 7199.56;
}

object node {
	name "l3120376";
	phases AN;
	nominal_voltage 7199.56;
}

object node {
	name "d5803273-1_int";
	phases ABCN;
	nominal_voltage 7199.56;
}

object node {
	name "n1144666";
	phases CN;
	nominal_voltage 7199.56;
}

object node {
	name "l2916610";
	phases BN;
	nominal_voltage 7199.56;
}

object node {
	name "l3645812";
	phases CN;
	nominal_voltage 7199.56;
}

object node {
	name "l3085390";
	phases BN;
	nominal_voltage 7199.56;
}

object node {
	name "m1069600";
	phases BN;
	nominal_voltage 7199.56;
}

object node {
	name "m1047720";
	phases ABCN;
	nominal_voltage 7199.56;
}

object node {
	name "l2685805";
	phases AN;
	nominal_voltage 7199.56;
}

object node {
	name "l2989596";
	phases BN;
	nominal_voltage 7199.56;
}

object node {
	name "l2897777";
	phases ABCN;
	nominal_voltage 7199.56;
}

object node {
	name "m1026732";
	phases ABCN;
	nominal_voltage 7199.56;
}

object node {
	name "m1047721";
	phases AN;
	nominal_voltage 7199.56;
}

object node {
	name "d5621886-1_int";
	phases ABCN;
	nominal_voltage 7199.56;
}

object node {
	name "l3649299";
	phases AN;
	nominal_voltage 7199.56;
}

object node {
	name "l3104145";
	phases BN;
	nominal_voltage 7199.56;
}

object node {
	name "l3197646";
	phases ABCN;
	nominal_voltage 7199.56;
}

object node {
	name "l3141402";
	phases CN;
	nominal_voltage 7199.56;
}

object node {
	name "p1121282";
	phases CN;
	nominal_voltage 7199.56;
}

object node {
	name "m1069551";
	phases BN;
	nominal_voltage 7199.56;
}

object node {
	name "m1026876";
	phases ABCN;
	nominal_voltage 7199.56;
}

object node {
	name "d5863704-2_int";
	phases ABCN;
	nominal_voltage 7199.56;
}

object node {
	name "m1026989";
	phases BN;
	nominal_voltage 7199.56;
}

object node {
	name "l3141403";
	phases CN;
	nominal_voltage 7199.56;
}

object node {
	name "r18245";
	phases ABCN;
	nominal_voltage 7199.56;
}

object node {
	name "m1026886";
	phases ABCN;
	nominal_voltage 7199.56;
}

object node {
	name "m1027013";
	phases ABCN;
	nominal_voltage 7199.56;
}

object node {
	name "m1026947";
	phases BN;
	nominal_voltage 7199.56;
}

object node {
	name "m1047767";
	phases BN;
	nominal_voltage 7199.56;
}

object node {
	name "l3085398";
	phases ABCN;
	nominal_voltage 7199.56;
}

object node {
	name "m1026951";
	phases BN;
	nominal_voltage 7199.56;
}

object node {
	name "m1047403";
	phases AN;
	nominal_voltage 7199.56;
}

object node {
	name "l3197640";
	phases CN;
	nominal_voltage 7199.56;
}

object node {
	name "l2785512";
	phases BN;
	nominal_voltage 7199.56;
}

object node {
	name "l2708293";
	phases AN;
	nominal_voltage 7199.56;
}

object node {
	name "l2766742";
	phases BN;
	nominal_voltage 7199.56;
}

object node {
	name "m1047432";
	phases AN;
	nominal_voltage 7199.56;
}

object node {
	name "l2801902";
	phases BN;
	nominal_voltage 7199.56;
}

object node {
	name "m1026784";
	phases CN;
	nominal_voltage 7199.56;
}

object node {
	name "m1047809";
	phases BN;
	nominal_voltage 7199.56;
}

object node {
	name "n1141473";
	phases AN;
	nominal_voltage 7199.56;
}

object node {
	name "l3066809";
	phases CN;
	nominal_voltage 7199.56;
}

object node {
	name "l2973166";
	phases CN;
	nominal_voltage 7199.56;
}

object node {
	name "l3104144";
	phases AN;
	nominal_voltage 7199.56;
}

object node {
	name "l3029505";
	phases CN;
	nominal_voltage 7199.56;
}

object node {
	name "p827549";
	phases AN;
	nominal_voltage 7199.56;
}

object node {
	name "n1147860";
	phases CN;
	nominal_voltage 7199.56;
}

object node {
	name "m1047826";
	phases BN;
	nominal_voltage 7199.56;
}

object node {
	name "l2935547";
	phases BN;
	nominal_voltage 7199.56;
}

object node {
	name "m3763623";
	phases CN;
	nominal_voltage 7199.56;
}

object node {
	name "l3157710";
	phases BN;
	nominal_voltage 7199.56;
}

object node {
	name "m1026679";
	phases AN;
	nominal_voltage 7199.56;
}

object node {
	name "m1069505";
	phases ABCN;
	nominal_voltage 7199.56;
}

object node {
	name "m1069574";
	phases BN;
	nominal_voltage 7199.56;
}

object node {
	name "p828362";
	phases ABCN;
	nominal_voltage 7199.56;
}

object node {
	name "m1009807";
	phases ABCN;
	nominal_voltage 7199.56;
}

object node {
	name "m1047821";
	phases BN;
	nominal_voltage 7199.56;
}

object node {
	name "l2710544";
	phases AN;
	nominal_voltage 7199.56;
}

object node {
	name "l3235268";
	phases CN;
	nominal_voltage 7199.56;
}

object node {
	name "p827504";
	phases AN;
	nominal_voltage 7199.56;
}

object node {
	name "r42246";
	phases ABCN;
	nominal_voltage 7199.56;
}

object node {
	name "l3216342";
	phases BN;
	nominal_voltage 7199.56;
}

object node {
	name "l2710512";
	phases BN;
	nominal_voltage 7199.56;
}

object node {
	name "l2766730";
	phases BN;
	nominal_voltage 7199.56;
}

object node {
	name "n1136661";
	phases CN;
	nominal_voltage 7199.56;
}

object node {
	name "p827560";
	phases AN;
	nominal_voltage 7199.56;
}

object node {
	name "m1026953";
	phases BN;
	nominal_voltage 7199.56;
}

object node {
	name "l2820531";
	phases ABCN;
	nominal_voltage 7199.56;
}

object node {
	name "l3728043";
	phases AN;
	nominal_voltage 7199.56;
}

object node {
	name "m1026890";
	phases AN;
	nominal_voltage 7199.56;
}

object node {
	name "l2691952";
	phases ABCN;
	nominal_voltage 7199.56;
}

object node {
	name "m3036164";
	phases BN;
	nominal_voltage 7199.56;
}

object node {
	name "m1047756";
	phases AN;
	nominal_voltage 7199.56;
}

object node {
	name "l3122810";
	phases BN;
	nominal_voltage 7199.56;
}

object node {
	name "l3141398";
	phases AN;
	nominal_voltage 7199.56;
}

object node {
	name "l3216345";
	phases ABCN;
	nominal_voltage 7199.56;
}

object node {
	name "l2876847";
	phases BN;
	nominal_voltage 7199.56;
}

object node {
	name "n1140821";
	phases CN;
	nominal_voltage 7199.56;
}

object node {
	name "p827507";
	phases CN;
	nominal_voltage 7199.56;
}

object node {
	name "m1027042";
	phases CN;
	nominal_voltage 7199.56;
}

object node {
	name "m1026646";
	phases AN;
	nominal_voltage 7199.56;
}

object node {
	name "p1164481";
	phases AN;
	nominal_voltage 7199.56;
}

object node {
	name "m1009784";
	phases ABCN;
	nominal_voltage 7199.56;
}

object node {
	name "l3197641";
	phases AN;
	nominal_voltage 7199.56;
}

object node {
	name "l3010580";
	phases BN;
	nominal_voltage 7199.56;
}

object node {
	name "p827555";
	phases BN;
	nominal_voltage 7199.56;
}

object node {
	name "r18243";
	phases ABCN;
	nominal_voltage 7199.56;
}

object node {
	name "l2858166";
	phases ABCN;
	nominal_voltage 7199.56;
}

object node {
	name "m1026834";
	phases ABCN;
	nominal_voltage 7199.56;
}

object node {
	name "l2691944";
	phases AN;
	nominal_voltage 7199.56;
}

object node {
	name "m1047769";
	phases BN;
	nominal_voltage 7199.56;
}

object node {
	name "n1137958";
	phases CN;
	nominal_voltage 7199.56;
}

object node {
	name "l3178975";
	phases BN;
	nominal_voltage 7199.56;
}

object node {
	name "l2785546";
	phases CN;
	nominal_voltage 7199.56;
}

object node {
	name "l2860504";
	phases AN;
	nominal_voltage 7199.56;
}

object node {
	name "regxfmr_190-8593";
	phases ABCN;
	nominal_voltage 7199.56;
}

object node {
	name "m1069524";
	phases AN;
	nominal_voltage 7199.56;
}

object node {
	name "l2879078";
	phases ABCN;
	nominal_voltage 7199.56;
}

object node {
	name "m1047410";
	phases AN;
	nominal_voltage 7199.56;
}

object node {
	name "l3047060";
	phases ABCN;
	nominal_voltage 7199.56;
}

object node {
	name "p901894";
	phases AN;
	nominal_voltage 7199.56;
}

object node {
	name "n1136659";
	phases AN;
	nominal_voltage 7199.56;
}

object node {
	name "l2841621";
	phases ABCN;
	nominal_voltage 7199.56;
}

object node {
	name "m1009855";
	phases BN;
	nominal_voltage 7199.56;
}

object node {
	name "l2822858";
	phases BN;
	nominal_voltage 7199.56;
}

object node {
	name "r18241";
	phases ABCN;
	nominal_voltage 7199.56;
}

object node {
	name "m1026855";
	phases ABCN;
	nominal_voltage 7199.56;
}

object node {
	name "n1139552";
	phases ABCN;
	nominal_voltage 7199.56;
}

object node {
	name "m1047766";
	phases BN;
	nominal_voltage 7199.56;
}

object node {
	name "l3784018";
	phases ABCN;
	nominal_voltage 7199.56;
}

object node {
	name "m1047729";
	phases AN;
	nominal_voltage 7199.56;
}

object node {
	name "p875742";
	phases BN;
	nominal_voltage 7199.56;
}

object node {
	name "m1069549";
	phases ABCN;
	nominal_voltage 7199.56;
}

object node {
	name "l2691943";
	phases BN;
	nominal_voltage 7199.56;
}

object node {
	name "m1047520";
	phases ABCN;
	nominal_voltage 7199.56;
}

object node {
	name "m1026778";
	phases AN;
	nominal_voltage 7199.56;
}

object node {
	name "l2673314";
	phases CN;
	nominal_voltage 7199.56;
}

object node {
	name "m1047pv-2";
	phases ABCN;
	nominal_voltage 7199.56;
}

object node {
	name "m1047732";
	phases ABCN;
	nominal_voltage 7199.56;
}

object node {
	name "n1136368";
	phases AN;
	nominal_voltage 7199.56;
}

object node {
	name "n1137986";
	phases ABCN;
	nominal_voltage 7199.56;
}

object node {
	name "p827509";
	phases BN;
	nominal_voltage 7199.56;
}

object node {
	name "l3083019";
	phases AN;
	nominal_voltage 7199.56;
}

object node {
	name "m1026779";
	phases AN;
	nominal_voltage 7199.56;
}

object node {
	name "m1026800";
	phases ABCN;
	nominal_voltage 7199.56;
}

object node {
	name "l2748140";
	phases AN;
	nominal_voltage 7199.56;
}

object node {
	name "m1026700";
	phases ABCN;
	nominal_voltage 7199.56;
}

object node {
	name "n1138594";
	phases AN;
	nominal_voltage 7199.56;
}

object node {
	name "m1069563";
	phases AN;
	nominal_voltage 7199.56;
}

object node {
	name "q16642_cap";
	phases ABCN;
	nominal_voltage 7199.56;
}

object node {
	name "l2691973";
	phases AN;
	nominal_voltage 7199.56;
}

object node {
	name "q16642";
	phases ABCN;
	nominal_voltage 7199.56;
}

object node {
	name "p895117";
	phases BN;
	nominal_voltage 7199.56;
}

object node {
	name "m1026972";
	phases BN;
	nominal_voltage 7199.56;
}

object node {
	name "m1069468";
	phases ABCN;
	nominal_voltage 7199.56;
}

object node {
	name "l2914323";
	phases BN;
	nominal_voltage 7199.56;
}

object node {
	name "regxfmr_hvmv11sub3_lsb";
	phases ABCN;
	nominal_voltage 7199.56;
}

object node {
	name "l2710504";
	phases BN;
	nominal_voltage 7199.56;
}

object node {
	name "m1069557";
	phases BN;
	nominal_voltage 7199.56;
}

object node {
	name "p827536";
	phases CN;
	nominal_voltage 7199.56;
}

object node {
	name "l2748127";
	phases AN;
	nominal_voltage 7199.56;
}

object node {
	name "n1136361";
	phases AN;
	nominal_voltage 7199.56;
}

object node {
	name "m1026977";
	phases ABCN;
	nominal_voltage 7199.56;
}

object node {
	name "m1026906";
	phases AN;
	nominal_voltage 7199.56;
}

object node {
	name "l2916603";
	phases BN;
	nominal_voltage 7199.56;
}

object node {
	name "l2785530";
	phases AN;
	nominal_voltage 7199.56;
}

object node {
	name "l3727711";
	phases AN;
	nominal_voltage 7199.56;
}

object node {
	name "m1047688";
	phases ABCN;
	nominal_voltage 7199.56;
}

object node {
	name "m3037441";
	phases ABCN;
	nominal_voltage 7199.56;
}

object node {
	name "l2841627";
	phases AN;
	nominal_voltage 7199.56;
}

object node {
	name "m1027123";
	phases AN;
	nominal_voltage 7199.56;
}

object node {
	name "m1047711";
	phases AN;
	nominal_voltage 7199.56;
}

object node {
	name "m1026942";
	phases AN;
	nominal_voltage 7199.56;
}

object node {
	name "l3029510";
	phases BN;
	nominal_voltage 7199.56;
}

object node {
	name "n1147859";
	phases BN;
	nominal_voltage 7199.56;
}

object node {
	name "l2729207";
	phases CN;
	nominal_voltage 7199.56;
}

object node {
	name "m1069484";
	phases CN;
	nominal_voltage 7199.56;
}

object node {
	name "l3189189";
	phases BN;
	nominal_voltage 7199.56;
}

object node {
	name "l2745806";
	phases CN;
	nominal_voltage 7199.56;
}

object node {
	name "m1047672";
	phases ABCN;
	nominal_voltage 7199.56;
}

object node {
	name "l2804270";
	phases BN;
	nominal_voltage 7199.56;
}

object node {
	name "m1026744";
	phases ABCN;
	nominal_voltage 7199.56;
}

object node {
	name "m1047755";
	phases AN;
	nominal_voltage 7199.56;
}

object node {
	name "l3160115";
	phases BN;
	nominal_voltage 7199.56;
}

object node {
	name "l2785535";
	phases BN;
	nominal_voltage 7199.56;
}

object node {
	name "m1009763";
	phases ABCN;
	nominal_voltage 7199.56;
}

object node {
	name "n1140522";
	phases CN;
	nominal_voltage 7199.56;
}

object node {
	name "m1026920";
	phases ABCN;
	nominal_voltage 7199.56;
}

object node {
	name "l2729206";
	phases CN;
	nominal_voltage 7199.56;
}

object node {
	name "m1069509";
	phases ABCN;
	nominal_voltage 7199.56;
}

object node {
	name "l3215340";
	phases AN;
	nominal_voltage 7199.56;
}

object node {
	name "l2916608";
	phases ABCN;
	nominal_voltage 7199.56;
}

object node {
	name "l2729430";
	phases BN;
	nominal_voltage 7199.56;
}

object node {
	name "d5860423-3_int";
	phases ABCN;
	nominal_voltage 7199.56;
}

object node {
	name "n1137001";
	phases AN;
	nominal_voltage 7199.56;
}

object node {
	name "l2879075";
	phases AN;
	nominal_voltage 7199.56;
}

object node {
	name "m3327098";
	phases BN;
	nominal_voltage 7199.56;
}

object node {
	name "l3176656";
	phases AN;
	nominal_voltage 7199.56;
}

object node {
	name "m1009828";
	phases BN;
	nominal_voltage 7199.56;
}

object node {
	name "l2911069";
	phases BN;
	nominal_voltage 7199.56;
}

object node {
	name "l3176660";
	phases BN;
	nominal_voltage 7199.56;
}

object node {
	name "l3177894";
	phases AN;
	nominal_voltage 7199.56;
}

object node {
	name "l2673317";
	phases AN;
	nominal_voltage 7199.56;
}

object node {
	name "l2897554";
	phases CN;
	nominal_voltage 7199.56;
}

object node {
	name "m1047419";
	phases AN;
	nominal_voltage 7199.56;
}

object node {
	name "l3254227";
	phases BN;
	nominal_voltage 7199.56;
}

object node {
	name "l2851933";
	phases ABCN;
	nominal_voltage 7199.56;
}

object node {
	name "l2860481";
	phases CN;
	nominal_voltage 7199.56;
}

object node {
	name "m1010003";
	phases AN;
	nominal_voltage 7199.56;
}

object node {
	name "l3160109";
	phases ABCN;
	nominal_voltage 7199.56;
}

object node {
	name "m1069558";
	phases BN;
	nominal_voltage 7199.56;
}

object node {
	name "m3036170";
	phases ABCN;
	nominal_voltage 7199.56;
}

object node {
	name "l3141412";
	phases AN;
	nominal_voltage 7199.56;
}

object node {
	name "l3029500";
	phases AN;
	nominal_voltage 7199.56;
}

object node {
	name "m1047831";
	phases BN;
	nominal_voltage 7199.56;
}

object node {
	name "m1047515";
	phases ABCN;
	nominal_voltage 7199.56;
}

object node {
	name "n1138593";
	phases AN;
	nominal_voltage 7199.56;
}

object node {
	name "l2673311";
	phases AN;
	nominal_voltage 7199.56;
}

object node {
	name "m1027027";
	phases CN;
	nominal_voltage 7199.56;
}

object node {
	name "n1136027";
	phases AN;
	nominal_voltage 7199.56;
}

object node {
	name "l2729428";
	phases AN;
	nominal_voltage 7199.56;
}

object node {
	name "m1047548";
	phases ABCN;
	nominal_voltage 7199.56;
}

object node {
	name "m1026905";
	phases ABCN;
	nominal_voltage 7199.56;
}

object node {
	name "m1069607";
	phases BN;
	nominal_voltage 7199.56;
}

object node {
	name "l2684420";
	phases BN;
	nominal_voltage 7199.56;
}

object node {
	name "m1010017";
	phases AN;
	nominal_voltage 7199.56;
}

object node {
	name "m1010004";
	phases AN;
	nominal_voltage 7199.56;
}

object node {
	name "l3048199";
	phases BN;
	nominal_voltage 7199.56;
}

object node {
	name "m1047423";
	phases AN;
	nominal_voltage 7199.56;
}

object node {
	name "m1047837";
	phases BN;
	nominal_voltage 7199.56;
}

object node {
	name "m1009809";
	phases CN;
	nominal_voltage 7199.56;
}

object node {
	name "l3728042";
	phases AN;
	nominal_voltage 7199.56;
}

object node {
	name "l2897773";
	phases AN;
	nominal_voltage 7199.56;
}

object node {
	name "l3120484";
	phases ABCN;
	nominal_voltage 7199.56;
}

object node {
	name "m1027091";
	phases AN;
	nominal_voltage 7199.56;
}

object node {
	name "m1009650";
	phases ABCN;
	nominal_voltage 7199.56;
}

object node {
	name "m1047420";
	phases AN;
	nominal_voltage 7199.56;
}

object node {
	name "l3178988";
	phases BN;
	nominal_voltage 7199.56;
}

object node {
	name "l3008248";
	phases AN;
	nominal_voltage 7199.56;
}

object node {
	name "l3120502";
	phases CN;
	nominal_voltage 7199.56;
}

object node {
	name "l2935568";
	phases BN;
	nominal_voltage 7199.56;
}

object node {
	name "l2691966";
	phases BN;
	nominal_voltage 7199.56;
}

object node {
	name "l3141396";
	phases CN;
	nominal_voltage 7199.56;
}

object node {
	name "d5956471-2_int";
	phases ABCN;
	nominal_voltage 7199.56;
}

object node {
	name "l3104129";
	phases AN;
	nominal_voltage 7199.56;
}

object node {
	name "m1027038";
	phases BN;
	nominal_voltage 7199.56;
}

object node {
	name "p903360";
	phases AN;
	nominal_voltage 7199.56;
}

object node {
	name "m1069519";
	phases ABCN;
	nominal_voltage 7199.56;
}

object node {
	name "l2673323";
	phases CN;
	nominal_voltage 7199.56;
}

object node {
	name "m1026877";
	phases AN;
	nominal_voltage 7199.56;
}

object node {
	name "l2748143";
	phases AN;
	nominal_voltage 7199.56;
}

object node {
	name "m1026682";
	phases AN;
	nominal_voltage 7199.56;
}

object node {
	name "m1026695";
	phases ABCN;
	nominal_voltage 7199.56;
}

object node {
	name "n1144664";
	phases CN;
	nominal_voltage 7199.56;
}

object node {
	name "l2673331";
	phases BN;
	nominal_voltage 7199.56;
}

object node {
	name "l3729297";
	phases AN;
	nominal_voltage 7199.56;
}

object node {
	name "l2954345";
	phases CN;
	nominal_voltage 7199.56;
}

object node {
	name "l2729413";
	phases AN;
	nominal_voltage 7199.56;
}

object node {
	name "l2916598";
	phases AN;
	nominal_voltage 7199.56;
}

object node {
	name "l2973150";
	phases AN;
	nominal_voltage 7199.56;
}

object node {
	name "m1047400";
	phases AN;
	nominal_voltage 7199.56;
}

object node {
	name "l2766499";
	phases CN;
	nominal_voltage 7199.56;
}

object node {
	name "m1026792";
	phases CN;
	nominal_voltage 7199.56;
}

object node {
	name "m1026647";
	phases AN;
	nominal_voltage 7199.56;
}

object node {
	name "m1026786";
	phases ABCN;
	nominal_voltage 7199.56;
}

object node {
	name "l3104124";
	phases BN;
	nominal_voltage 7199.56;
}

object node {
	name "m1047507";
	phases ABCN;
	nominal_voltage 7199.56;
}

object node {
	name "l3235254";
	phases ABCN;
	nominal_voltage 7199.56;
}

object node {
	name "p827506";
	phases AN;
	nominal_voltage 7199.56;
}

object node {
	name "m1047574";
	phases ABCN;
	nominal_voltage 7199.56;
}

object node {
	name "m1047pv-3";
	phases ABCN;
	nominal_voltage 7199.56;
}

object node {
	name "m1047497";
	phases ABCN;
	nominal_voltage 7199.56;
}

object node {
	name "l2860501";
	phases BN;
	nominal_voltage 7199.56;
}

object node {
	name "p873787";
	phases BN;
	nominal_voltage 7199.56;
}

object node {
	name "l3251830";
	phases AN;
	nominal_voltage 7199.56;
}

object node {
	name "228-961799-3_int";
	phases CN;
	nominal_voltage 7199.56;
}

object node {
	name "l3027156";
	phases CN;
	nominal_voltage 7199.56;
}

object node {
	name "m3019248";
	phases BN;
	nominal_voltage 7199.56;
}

object node {
	name "p827528";
	phases CN;
	nominal_voltage 7199.56;
}

object node {
	name "l2860493";
	phases AN;
	nominal_voltage 7199.56;
}

object node {
	name "m1047486";
	phases ABCN;
	nominal_voltage 7199.56;
}

object node {
	name "l2748132";
	phases AN;
	nominal_voltage 7199.56;
}

object node {
	name "l2710542";
	phases BN;
	nominal_voltage 7199.56;
}

object node {
	name "m1027019";
	phases BN;
	nominal_voltage 7199.56;
}

object node {
	name "l3066812";
	phases AN;
	nominal_voltage 7199.56;
}

object node {
	name "l2673343";
	phases BN;
	nominal_voltage 7199.56;
}

object node {
	name "l2766720";
	phases AN;
	nominal_voltage 7199.56;
}

object node {
	name "m1047751";
	phases AN;
	nominal_voltage 7199.56;
}

object node {
	name "m1027080";
	phases AN;
	nominal_voltage 7199.56;
}

object node {
	name "d5804798-3_int";
	phases BN;
	nominal_voltage 7199.56;
}

object node {
	name "l2729401";
	phases BN;
	nominal_voltage 7199.56;
}

object node {
	name "m1069483";
	phases ABCN;
	nominal_voltage 7199.56;
}

object node {
	name "l2860499";
	phases BN;
	nominal_voltage 7199.56;
}

object node {
	name "m1069488";
	phases CN;
	nominal_voltage 7199.56;
}

object node {
	name "l3728039";
	phases AN;
	nominal_voltage 7199.56;
}

object node {
	name "m1047724";
	phases ABCN;
	nominal_voltage 7199.56;
}

object node {
	name "m1047534";
	phases ABCN;
	nominal_voltage 7199.56;
}

object node {
	name "p827525";
	phases ABCN;
	nominal_voltage 7199.56;
}

object node {
	name "m1069595";
	phases BN;
	nominal_voltage 7199.56;
}

object node {
	name "l3253995";
	phases CN;
	nominal_voltage 7199.56;
}

object node {
	name "d6440002-2_int";
	phases CN;
	nominal_voltage 7199.56;
}

object node {
	name "n1137005";
	phases ABCN;
	nominal_voltage 7199.56;
}

object node {
	name "q14414";
	phases ABCN;
	nominal_voltage 7199.56;
}

object node {
	name "l3649305";
	phases AN;
	nominal_voltage 7199.56;
}

object node {
	name "m1069466";
	phases AN;
	nominal_voltage 7199.56;
}

object node {
	name "l3197618";
	phases AN;
	nominal_voltage 7199.56;
}

object node {
	name "l2729408";
	phases BN;
	nominal_voltage 7199.56;
}

object node {
	name "l3727712";
	phases AN;
	nominal_voltage 7199.56;
}

object node {
	name "l2691939";
	phases BN;
	nominal_voltage 7199.56;
}

object node {
	name "n1137995";
	phases AN;
	nominal_voltage 7199.56;
}

object node {
	name "e182726";
	phases BN;
	nominal_voltage 7199.56;
}

object node {
	name "l3157708";
	phases CN;
	nominal_voltage 7199.56;
}

object node {
	name "l2748157";
	phases AN;
	nominal_voltage 7199.56;
}

object node {
	name "n1140830";
	phases AN;
	nominal_voltage 7199.56;
}

object node {
	name "l2860479";
	phases BN;
	nominal_voltage 7199.56;
}

object node {
	name "m1027100";
	phases AN;
	nominal_voltage 7199.56;
}

object node {
	name "m1047558";
	phases ABCN;
	nominal_voltage 7199.56;
}

object node {
	name "n1136658";
	phases ABCN;
	nominal_voltage 7199.56;
}

object node {
	name "n1137957";
	phases AN;
	nominal_voltage 7199.56;
}

object node {
	name "m1026703";
	phases CN;
	nominal_voltage 7199.56;
}

object node {
	name "n1140521";
	phases ABCN;
	nominal_voltage 7199.56;
}

object node {
	name "n1140819";
	phases ABCN;
	nominal_voltage 7199.56;
}

object node {
	name "l3254208";
	phases CN;
	nominal_voltage 7199.56;
}

object node {
	name "n1136995";
	phases CN;
	nominal_voltage 7199.56;
}

object node {
	name "m1009698";
	phases ABCN;
	nominal_voltage 7199.56;
}

object node {
	name "l3082992";
	phases AN;
	nominal_voltage 7199.56;
}

object node {
	name "l2973169";
	phases AN;
	nominal_voltage 7199.56;
}

object node {
	name "n1136355";
	phases BN;
	nominal_voltage 7199.56;
}

object node {
	name "p901932";
	phases CN;
	nominal_voltage 7199.56;
}

object node {
	name "e182730";
	phases AN;
	nominal_voltage 7199.56;
}

object node {
	name "m1026662";
	phases ABCN;
	nominal_voltage 7199.56;
}

object node {
	name "m1009834";
	phases BN;
	nominal_voltage 7199.56;
}

object node {
	name "l3216337";
	phases AN;
	nominal_voltage 7199.56;
}

object node {
	name "l2914324";
	phases CN;
	nominal_voltage 7199.56;
}

object node {
	name "n1136999";
	phases AN;
	nominal_voltage 7199.56;
}

object node {
	name "m1026927";
	phases ABCN;
	nominal_voltage 7199.56;
}

object node {
	name "l3235246";
	phases BN;
	nominal_voltage 7199.56;
}

object node {
	name "l2726983";
	phases AN;
	nominal_voltage 7199.56;
}

object node {
	name "m1047401";
	phases AN;
	nominal_voltage 7199.56;
}

object node {
	name "n1136360";
	phases AN;
	nominal_voltage 7199.56;
}

object node {
	name "n1140818";
	phases ABCN;
	nominal_voltage 7199.56;
}

object node {
	name "m1047480";
	phases ABCN;
	nominal_voltage 7199.56;
}

object node {
	name "q14413";
	phases ABCN;
	nominal_voltage 7199.56;
}

object node {
	name "l2729423";
	phases CN;
	nominal_voltage 7199.56;
}

object node {
	name "m1047513";
	phases ABCN;
	nominal_voltage 7199.56;
}

object node {
	name "l2933165";
	phases BN;
	nominal_voltage 7199.56;
}

object node {
	name "m1027004";
	phases BN;
	nominal_voltage 7199.56;
}

object node {
	name "l3216351";
	phases AN;
	nominal_voltage 7199.56;
}

object node {
	name "l2897805";
	phases AN;
	nominal_voltage 7199.56;
}

object node {
	name "l3122818";
	phases CN;
	nominal_voltage 7199.56;
}

object node {
	name "n1137998";
	phases CN;
	nominal_voltage 7199.56;
}

object node {
	name "m3037538";
	phases CN;
	nominal_voltage 7199.56;
}

object node {
	name "l2748126";
	phases CN;
	nominal_voltage 7199.56;
}

object node {
	name "p827548";
	phases AN;
	nominal_voltage 7199.56;
}

object node {
	name "m1026866";
	phases ABCN;
	nominal_voltage 7199.56;
}

object node {
	name "m1047649";
	phases ABCN;
	nominal_voltage 7199.56;
}

object node {
	name "l2766725";
	phases CN;
	nominal_voltage 7199.56;
}

object node {
	name "p901913";
	phases CN;
	nominal_voltage 7199.56;
}

object node {
	name "l2859391";
	phases BN;
	nominal_voltage 7199.56;
}

object node {
	name "l2710525";
	phases CN;
	nominal_voltage 7199.56;
}

object node {
	name "l2729409";
	phases BN;
	nominal_voltage 7199.56;
}

object node {
	name "l3645811";
	phases CN;
	nominal_voltage 7199.56;
}

object node {
	name "n1140525";
	phases CN;
	nominal_voltage 7199.56;
}

object node {
	name "l2970841";
	phases AN;
	nominal_voltage 7199.56;
}

object node {
	name "l3197660";
	phases BN;
	nominal_voltage 7199.56;
}

object node {
	name "d5806920-1_int";
	phases BN;
	nominal_voltage 7199.56;
}

object node {
	name "221-559682";
	phases CN;
	nominal_voltage 7199.56;
}

object node {
	name "m1047483";
	phases ABCN;
	nominal_voltage 7199.56;
}

object node {
	name "l3048221";
	phases ABCN;
	nominal_voltage 7199.56;
}

object node {
	name "n1140820";
	phases BN;
	nominal_voltage 7199.56;
}

object node {
	name "l2841615";
	phases AN;
	nominal_voltage 7199.56;
}

object node {
	name "l2785522";
	phases BN;
	nominal_voltage 7199.56;
}

object node {
	name "m1026713";
	phases AN;
	nominal_voltage 7199.56;
}

object node {
	name "l3048222";
	phases CN;
	nominal_voltage 7199.56;
}

object node {
	name "m1069629";
	phases BN;
	nominal_voltage 7199.56;
}

object node {
	name "m3021569";
	phases BN;
	nominal_voltage 7199.56;
}

object node {
	name "m1026891";
	phases ABCN;
	nominal_voltage 7199.56;
}

object node {
	name "m1069514";
	phases ABCN;
	nominal_voltage 7199.56;
}

object node {
	name "m1026939";
	phases BN;
	nominal_voltage 7199.56;
}

object node {
	name "l2876812";
	phases AN;
	nominal_voltage 7199.56;
}

object node {
	name "l2973165";
	phases AN;
	nominal_voltage 7199.56;
}

object node {
	name "l3048203";
	phases BN;
	nominal_voltage 7199.56;
}

object node {
	name "n1136667";
	phases ABCN;
	nominal_voltage 7199.56;
}

object node {
	name "m1009742";
	phases ABCN;
	nominal_voltage 7199.56;
}

object node {
	name "l3104123";
	phases CN;
	nominal_voltage 7199.56;
}

object node {
	name "l2879081";
	phases AN;
	nominal_voltage 7199.56;
}

object node {
	name "m1047786";
	phases BN;
	nominal_voltage 7199.56;
}

object node {
	name "l3251854";
	phases AN;
	nominal_voltage 7199.56;
}

object node {
	name "l2691938";
	phases BN;
	nominal_voltage 7199.56;
}

object node {
	name "196-29519";
	phases ABCN;
	nominal_voltage 7199.56;
}

object node {
	name "l2879074";
	phases AN;
	nominal_voltage 7199.56;
}

object node {
	name "hvmv11sub3_lsb";
	phases ABCN;
	nominal_voltage 7199.56;
}

object node {
	name "m1026780";
	phases ABCN;
	nominal_voltage 7199.56;
}

object node {
	name "e182746";
	phases ABCN;
	nominal_voltage 7199.56;
}

object node {
	name "m1026896";
	phases ABCN;
	nominal_voltage 7199.56;
}

object node {
	name "m1027000";
	phases ABCN;
	nominal_voltage 7199.56;
}

object node {
	name "l2973161";
	phases AN;
	nominal_voltage 7199.56;
}

object node {
	name "m1069554";
	phases BN;
	nominal_voltage 7199.56;
}

object node {
	name "n1140831";
	phases CN;
	nominal_voltage 7199.56;
}

object node {
	name "m1026954";
	phases ABCN;
	nominal_voltage 7199.56;
}

object node {
	name "m1026chp-3";
	phases ABCN;
	nominal_voltage 7199.56;
	bustype SWING_PQ;
}

object node {
...